StateEstimation/Zack/Add_Paths/IEEE13Nodeckt.dss
Clear

New Circuit.IEEE13Nodeckt Phases=3 bus1=SourceBus basekv=115 pu=1.0001 angle=30 MVAsc3=20000 MVAsc1=21000
New Linecode.1 Nphases=3 Rmatrix=[0.086667    0.029545    0.029072| 0.029545    0.088371    0.029924| 0.029072    0.029924    0.087405|] Xmatrix=[ 0.20417    0.095019    0.072898| 0.095019     0.19852    0.080227| 0.072898    0.080227     0.20172|] Cmatrix=[  2.8517    -0.92029    -0.35076| -0.92029      3.0046    -0.58501| -0.35076    -0.58501      2.7113|] BaseFreq=60
New Linecode.2 Nphases=3 Rmatrix=[0.088371    0.029924    0.029545| 0.029924    0.087405    0.029072| 0.029545    0.029072    0.086667|] Xmatrix=[ 0.19852    0.080227    0.095019| 0.080227     0.20172    0.072898| 0.095019    0.072898     0.20417|] Cmatrix=[  3.0046    -0.58501    -0.92029| -0.58501      2.7113    -0.35076| -0.92029    -0.35076      2.8517|] BaseFreq=60
New Linecode.3 Nphases=3 Rmatrix=[0.087405    0.029072    0.029924| 0.029072    0.086667    0.029545| 0.029924    0.029545    0.088371|] Xmatrix=[ 0.20172    0.072898    0.080227| 0.072898     0.20417    0.095019| 0.080227    0.095019     0.19852|] Cmatrix=[  2.7113    -0.35076    -0.58501| -0.35076      2.8517    -0.92029| -0.58501    -0.92029      3.0046|] BaseFreq=60
New Linecode.4 Nphases=3 Rmatrix=[0.087405    0.029924    0.029072| 0.029924    0.088371    0.029545| 0.029072    0.029545    0.086667|] Xmatrix=[ 0.20172    0.080227    0.072898| 0.080227     0.19852    0.095019| 0.072898    0.095019     0.20417|] Cmatrix=[  2.7113     0.58501    -0.35076|  0.58501      3.0046    -0.92029| -0.35076    -0.92029      2.8517|] BaseFreq=60
New Linecode.5 Nphases=3 Rmatrix=[0.088371    0.029545    0.029924| 0.029545    0.086667    0.029072| 0.029924    0.029072    0.087405|] Xmatrix=[ 0.19852    0.095019    0.080227| 0.095019     0.20417    0.072898| 0.080227    0.072898     0.20172|] Cmatrix=[  3.0046    -0.92029    -0.58501| -0.92029      2.8517    -0.35076| -0.58501    -0.35076      2.7113|] BaseFreq=60
New Linecode.6 Nphases=3 Rmatrix=[0.086667    0.029072    0.029545| 0.029072    0.087405    0.029924| 0.029545    0.029924    0.088371|] Xmatrix=[ 0.20417    0.072898    0.095019| 0.072898     0.20172    0.080227| 0.095019    0.080227     0.19852|] Cmatrix=[  2.8517    -0.35076    -0.92029| -0.35076      2.7113    -0.58501| -0.92029    -0.58501      3.0046|] BaseFreq=60
New Linecode.7 Nphases=2 Rmatrix=[0.086667    0.029072| 0.029072    0.087405|] Xmatrix=[ 0.20417    0.072898| 0.072898     0.20172|] Cmatrix=[  2.5698    -0.52995| -0.52995      2.5975|] BaseFreq=60
New Linecode.8 Nphases=2 Rmatrix=[0.086667    0.029072| 0.029072    0.087405|] Xmatrix=[ 0.20417    0.072898| 0.072898     0.20172|] Cmatrix=[  2.5698    -0.52995| -0.52995      2.5975|] BaseFreq=60
New Linecode.9 Nphases=1 Rmatrix=0.25174 Xmatrix=0.25521 Cmatrix=2.2704 BaseFreq=60
New Linecode.10 Nphases=1 Rmatrix=0.25174 Xmatrix=0.25521 Cmatrix=2.2704 BaseFreq=60
New Linecode.11 Nphases=1 Rmatrix=0.25174 Xmatrix=0.25521 Cmatrix=2.2704 BaseFreq=60
New Linecode.12 Nphases=3 Rmatrix=[ 0.28805    0.098447    0.093258| 0.098447     0.29032    0.098447| 0.093258    0.098447     0.28805|] Xmatrix=[ 0.14244    0.052557    0.040852| 0.052557     0.13564    0.052557| 0.040852    0.052557     0.14244|] Cmatrix=[33.7715            0            0|       0      33.7715            0|       0            0      33.7715|] BaseFreq=60
New Linecode.300 Nphases=3 Rmatrix=[ 0.25318    0.039792    0.040341| 0.039792     0.25072    0.039129| 0.040341    0.039129     0.25178|] Xmatrix=[ 0.25271     0.10945    0.094981|  0.10945     0.25699    0.086951| 0.094981    0.086951     0.25513|] Cmatrix=[  2.6802    -0.76928    -0.49951| -0.76928       2.561    -0.31207| -0.49951    -0.31207      2.4556|] BaseFreq=60
New Linecode.301 Nphases=3 Rmatrix=[ 0.36553    0.044072    0.044678| 0.044072     0.36282    0.043333| 0.044678    0.043333       0.364|] Xmatrix=[0.26733     0.12201     0.10778| 0.12201     0.27047    0.099205| 0.10778    0.099205     0.26911|] Cmatrix=[  2.5725    -0.72161    -0.47233| -0.72161      2.4644    -0.29896| -0.47233    -0.29896      2.3689|] BaseFreq=60
New Linecode.302 Nphases=1 Rmatrix=0.53021 Xmatrix=0.28135 Cmatrix=2.1226 BaseFreq=60
New Linecode.303 Nphases=1 Rmatrix=0.53021 Xmatrix=0.28135 Cmatrix=2.1226 BaseFreq=60
New Linecode.304 Nphases=1 Rmatrix=0.36396 Xmatrix=0.26917 Cmatrix=2.1922 BaseFreq=60
New Linecode.400 Nphases=3 Rmatrix=[0.088205    0.031214    0.030626| 0.031214    0.090195    0.031614| 0.030626    0.031614    0.088967|] Xmatrix=[ 0.20744    0.093531    0.076031| 0.093531     0.20078    0.085588| 0.076031    0.085588     0.20488|] Cmatrix=[   2.903    -0.67934    -0.22313| -0.67934       3.159    -0.48142| -0.22313    -0.48142      2.8965|] BaseFreq=60
New Linecode.601 Nphases=3 Rmatrix=[0.065625    0.029545    0.029924| 0.029545     0.06392    0.029072| 0.029924    0.029072    0.064659|] Xmatrix=[ 0.19278    0.095019    0.080227| 0.095019     0.19845    0.072898| 0.080227    0.072898     0.19598|] Cmatrix=[  3.1648     -1.0026    -0.63274|  -1.0026       2.994    -0.37261| -0.63274    -0.37261      2.8327|] BaseFreq=60
New Linecode.602 Nphases=3 Rmatrix=[ 0.14254    0.029924    0.029545| 0.029924     0.14157    0.029072| 0.029545    0.029072     0.14083|] Xmatrix=[ 0.22375    0.080227    0.095019| 0.080227     0.22695    0.072898| 0.095019    0.072898     0.22939|] Cmatrix=[   2.863    -0.54341    -0.84926| -0.54341       2.602    -0.33096| -0.84926    -0.33096      2.7252|] BaseFreq=60
New Linecode.603 Nphases=2 Rmatrix=[ 0.25178    0.039129| 0.039129     0.25072|] Xmatrix=[ 0.25513    0.086951| 0.086951     0.25699|] Cmatrix=[   2.366    -0.45208| -0.45208       2.344|] BaseFreq=60
New Linecode.604 Nphases=2 Rmatrix=[ 0.25072    0.039129| 0.039129     0.25178|] Xmatrix=[ 0.25699    0.086951| 0.086951     0.25513|] Cmatrix=[   2.344    -0.45208| -0.45208       2.366|] BaseFreq=60
New Linecode.605 Nphases=1 Rmatrix=0.25174 Xmatrix=0.25521 Cmatrix=2.2704 BaseFreq=60
New Linecode.606 Nphases=3 Rmatrix=[ 0.15117    0.060455    0.053958| 0.060455     0.14945    0.060455| 0.053958    0.060455     0.15117|] Xmatrix=[  0.084527   0.0062121  -0.0027083|  0.0062121    0.076534   0.0062121| -0.0027083   0.0062121    0.084527|] Cmatrix=[48.6746            0            0|       0      48.6746            0|       0            0      48.6746|] BaseFreq=60
New Linecode.607 Nphases=1 Rmatrix=0.25426 Xmatrix=0.097045 Cmatrix=44.7066 BaseFreq=60
New Linecode.721 Nphases=3 Rmatrix=[ 0.055417    0.012746   0.0063826|  0.012746    0.050114    0.012746| 0.0063826    0.012746    0.055417|] Xmatrix=[  0.037367  -0.0069697  -0.0078977| -0.0069697    0.035985  -0.0069697| -0.0078977  -0.0069697    0.037367|] Cmatrix=[80.2748            0            0|       0      80.2748            0|       0            0      80.2748|] BaseFreq=60
New Linecode.722 Nphases=3 Rmatrix=[0.089981    0.030852    0.023371| 0.030852       0.085    0.030852| 0.023371    0.030852    0.089981|] Xmatrix=[  0.056307  -0.0061742   -0.011496| -0.0061742     0.05072  -0.0061742|  -0.011496  -0.0061742    0.056307|] Cmatrix=[64.2184            0            0|       0      64.2184            0|       0            0      64.2184|] BaseFreq=60
New Linecode.723 Nphases=3 Rmatrix=[   0.245    0.092254    0.086837| 0.092254     0.24663    0.092254| 0.086837    0.092254       0.245|] Xmatrix=[ 0.12714    0.039981    0.028807| 0.039981     0.11981    0.039981| 0.028807    0.039981     0.12714|] Cmatrix=[37.5977            0            0|       0      37.5977            0|       0            0      37.5977|] BaseFreq=60
New Linecode.724 Nphases=3 Rmatrix=[ 0.39682    0.098561    0.093295| 0.098561     0.39902    0.098561| 0.093295    0.098561     0.39682|] Xmatrix=[ 0.14693    0.051856    0.040208| 0.051856     0.14011    0.051856| 0.040208    0.051856     0.14693|] Cmatrix=[30.267            0            0|      0       30.267            0|      0            0       30.267|] BaseFreq=60
New Linecode.mtx601 Nphases=3 Units=mi Rmatrix=[0.3465       0.156       0.158|  0.156      0.3375      0.1535|  0.158      0.1535      0.3414|] Xmatrix=[1.0179      0.5017      0.4236| 0.5017      1.0478      0.3849| 0.4236      0.3849      1.0348|] BaseFreq=60
New Linecode.mtx602 Nphases=3 Units=mi Rmatrix=[0.7526       0.158       0.156|  0.158      0.7475      0.1535|  0.156      0.1535      0.7436|] Xmatrix=[1.1814      0.4236      0.5017| 0.4236      1.1983      0.3849| 0.5017      0.3849      1.2112|] BaseFreq=60
New Linecode.mtx603 Nphases=2 Units=mi Rmatrix=[1.3238      0.2066| 0.2066      1.3294|] Xmatrix=[1.3569      0.4591| 0.4591      1.3471|] BaseFreq=60
New Linecode.mtx604 Nphases=2 Units=mi Rmatrix=[1.3238      0.2066| 0.2066      1.3294|] Xmatrix=[1.3569      0.4591| 0.4591      1.3471|] BaseFreq=60
New Linecode.mtx605 Nphases=1 Units=mi Rmatrix=1.3292 Xmatrix=1.3475 BaseFreq=60
New Linecode.mtx606 Nphases=3 Units=mi Rmatrix=[0.7982      0.3192      0.2849| 0.3192      0.7891      0.3192| 0.2849      0.3192      0.7982|] Xmatrix=[ 0.4463      0.0328     -0.0143|  0.0328      0.4041      0.0328| -0.0143      0.0328      0.4463|] Cmatrix=[257    0    0|   0  257    0|   0    0  257|] BaseFreq=60
New Linecode.mtx607 Nphases=1 Units=mi Rmatrix=1.3425 Xmatrix=0.5124 Cmatrix=236 BaseFreq=60
New Line.650632 LineCode=mtx601 Phases=3 bus1=RG60.1.2.3 bus2=632.1.2.3 Units=ft Length=2000
New Line.632670 LineCode=mtx601 Phases=3 bus1=632.1.2.3 bus2=670.1.2.3 Units=ft Length=667
New Line.670671 LineCode=mtx601 Phases=3 bus1=670.1.2.3 bus2=671.1.2.3 Units=ft Length=1333
New Line.671680 LineCode=mtx601 Phases=3 bus1=671.1.2.3 bus2=680.1.2.3 Units=ft Length=1000
New Line.632633 LineCode=mtx602 Phases=3 bus1=632.1.2.3 bus2=633.1.2.3 Units=ft Length=500
New Line.632645 LineCode=mtx603 Phases=2 bus1=632.3.2 bus2=645.3.2 Units=ft Length=500
New Line.645646 LineCode=mtx603 Phases=2 bus1=645.3.2 bus2=646.3.2 Units=ft Length=300
New Line.692675 LineCode=mtx606 Phases=3 bus1=692.1.2.3 bus2=675.1.2.3 Units=ft Length=500
New Line.671684 LineCode=mtx604 Phases=2 bus1=671.1.3 bus2=684.1.3 Units=ft Length=300
New Line.684611 LineCode=mtx605 Phases=1 bus1=684.3 bus2=611.3 Units=ft Length=300
New Line.684652 LineCode=mtx607 Phases=1 bus1=684.1 bus2=652.1 Units=ft Length=800
New Line.671692 Phases=3 bus1=671 bus2=692 Switch=TRUE R1=0.0001 X1=0 R0=0.0001 X0=0 C1=0 C0=0
New Transformer.Sub Phases=3 Windings=2 XHL=0.008 XHT=4 XLT=4 Wdg=1 Bus=SourceBus Conn=delta kV=115 kVA=5000 %R=0.0005 Wdg=2 Bus=650 Conn=wye kV=4.16 kVA=5000 %R=0.0005
New Transformer.Reg1 Buses=[650.1 RG60.1] %Loadloss=0.01 Phases=1 XHL=0.01 kVAs=[1666  1666] kVs=[2.4         2.4]
New Transformer.Reg2 Buses=[650.2 RG60.2] %Loadloss=0.01 Phases=1 XHL=0.01 kVAs=[1666  1666] kVs=[2.4         2.4]
New Transformer.Reg3 Buses=[650.3 RG60.3] %Loadloss=0.01 Phases=1 XHL=0.01 kVAs=[1666  1666] kVs=[2.4         2.4]
New Transformer.XFM1 Phases=3 Windings=2 XHL=2 XHT=1 XLT=1 Wdg=1 Bus=633 Conn=wye kV=4.16 kVA=500 %R=0.55 Wdg=2 Bus=634 Conn=wye kV=0.48 kVA=500 %R=0.55
New Capacitor.Cap1 Phases=3 Bus1=675 Kvar=600 Kv=4.16
New Capacitor.Cap2 Phases=1 Bus1=611.3 Kvar=100 Kv=2.4
New Load.671 Phases=3 bus1=671.1.2.3 Kv=4.16 Kw=1155 Model=1 Conn=Delta Kvar=660
New Load.634a Phases=1 bus1=634.1 Kv=0.277 Kw=160 Model=1 Conn=Wye Kvar=110
New Load.634b Phases=1 bus1=634.2 Kv=0.277 Kw=120 Model=1 Conn=Wye Kvar=90
New Load.634c Phases=1 bus1=634.3 Kv=0.277 Kw=120 Model=1 Conn=Wye Kvar=90
New Load.645 Phases=1 bus1=645.2 Kv=2.4 Kw=170 Model=1 Conn=Wye Kvar=125
New Load.646 Phases=1 bus1=646.2.3 Kv=4.16 Kw=230 Model=2 Conn=Delta Kvar=132
New Load.692 Phases=1 bus1=692.3.1 Kv=4.16 Kw=170 Model=5 Conn=Delta Kvar=151
New Load.675a Phases=1 bus1=675.1 Kv=2.4 Kw=485 Model=1 Conn=Wye Kvar=190
New Load.675b Phases=1 bus1=675.2 Kv=2.4 Kw=68 Model=1 Conn=Wye Kvar=60
New Load.675c Phases=1 bus1=675.3 Kv=2.4 Kw=290 Model=1 Conn=Wye Kvar=212
New Load.611 Phases=1 bus1=611.3 Kv=2.4 Kw=170 Model=5 Conn=Wye Kvar=80
New Load.652 Phases=1 bus1=652.1 Kv=2.4 Kw=128 Model=2 Conn=Wye Kvar=86
New Load.670a Phases=1 bus1=670.1 Kv=2.4 Kw=17 Model=1 Conn=Wye Kvar=10
New Load.670b Phases=1 bus1=670.2 Kv=2.4 Kw=66 Model=1 Conn=Wye Kvar=38
New Load.670c Phases=1 bus1=670.3 Kv=2.4 Kw=117 Model=1 Conn=Wye Kvar=68


! Let DSS estimate the voltage bases
Set voltagebases=[115 4.16 0.48]
Calcvoltagebases     ! This also establishes the bus list

Buscoords IEEE13Nodeckt_buscoords.csv


set maxiterations=1000
